data_C384H160N64_2018-02-15_12:16:10
#******************************************
#
# CIF file created by Zeo++
# Zeo++ is an open source package to
# analyze microporous materials
#
#*******************************************

_cell_length_a		28.0215   
_cell_length_b		27.8973   
_cell_length_c		40.4673   
_cell_angle_alpha		90   
_cell_angle_beta		90   
_cell_angle_gamma		90   

_symmetry_space_group_name_H-M		'P1'
_symmetry_Int_Tables_number		1
_symmetry_cell_setting		Orthorhombic

loop_
_symmetry_equiv_pos_as_xyz
'+x,+y,+z'

loop_
_atom_site_label
_atom_site_type_symbol
_atom_site_fract_x
_atom_site_fract_y
_atom_site_fract_z
1	C	0.253832	0.615088	0.106147
2	C	0.285236	0.590652	0.127544
3	C	0.316569	0.615206	0.14892
4	H	0.285307	0.553853	0.127551
5	C	0.011574	0.53241	0.043463
6	C	0.13867	0.499199	0.02434
7	C	0.087831	0.499744	0.023962
8	H	0.199691	0.467862	0.002857
9	C	0.061482	0.532388	0.043465
10	H	0.078161	0.557387	0.057842
11	C	0.227523	0.588684	0.050325
12	N	0.19884	0.559879	0.031959
13	C	0.167014	0.52856	0.045362
14	C	0.165253	0.52528	0.080172
15	N	0.193848	0.554179	0.098536
16	C	0.224606	0.586573	0.085143
17	H	0.250782	0.611317	0.038712
18	H	0.143031	0.501608	0.091774
19	C	0.25323	0.666161	0.10651
20	C	0.317065	0.666272	0.148513
21	C	0.010888	0.467931	0.002794
22	C	0.062125	0.467888	0.002813
23	C	0.163053	0.467848	0.00285
24	H	0.493118	0.558183	0.197149
25	H	0.576386	0.558083	0.197099
26	C	0.40606	0.526287	0.174815
27	N	0.377182	0.554925	0.156467
28	C	0.34596	0.586835	0.169894
29	H	0.428567	0.502916	0.163191
30	C	0.663426	0.526094	0.174716
31	H	0.640833	0.502819	0.163075
32	C	0.752772	0.665835	0.148545
33	C	0.753239	0.614766	0.148912
34	C	0.784615	0.590222	0.127558
35	C	0.816066	0.614694	0.10621
36	C	0.816669	0.665763	0.106592
37	H	0.784544	0.553423	0.127541
38	C	0.931588	0.499314	0.02431
39	C	0.982428	0.499808	0.023942
40	H	0.992138	0.557441	0.057822
41	C	0.842307	0.588301	0.05039
42	N	0.871131	0.559671	0.032004
43	C	0.903221	0.528596	0.045374
44	C	0.905112	0.525381	0.080186
45	N	0.87637	0.5541	0.098579
46	C	0.845333	0.586236	0.085203
47	H	0.818875	0.610776	0.038797
48	H	0.927513	0.501862	0.09177
49	N	0.692429	0.554641	0.156389
50	C	0.72378	0.586397	0.169844
51	C	0.138258	0.935323	0.023809
52	C	0.087422	0.934732	0.023399
53	C	0.061081	0.902044	0.042871
54	C	0.011172	0.902037	0.042884
55	H	0.077767	0.877002	0.05721
56	C	0.28514	0.743498	0.127433
57	C	0.253217	0.769264	0.106409
58	C	0.253816	0.820334	0.105937
59	C	0.285252	0.844892	0.127245
60	C	0.316626	0.820438	0.148651
61	C	0.317097	0.769365	0.148377
62	C	0.220512	0.742735	0.08711
63	H	0.285317	0.881691	0.127161
64	C	0.285136	0.692035	0.12749
65	C	0.220517	0.692601	0.08716
66	H	0.195437	0.675825	0.072957
67	H	0.195439	0.75945	0.072863
68	C	0.164636	0.909385	0.079732
69	N	0.193394	0.880766	0.098186
70	C	0.224553	0.848699	0.084872
71	C	0.227675	0.846573	0.050065
72	N	0.198838	0.87511	0.031619
73	C	0.166631	0.906124	0.044924
74	H	0.142136	0.932857	0.091269
75	H	0.251194	0.824134	0.038523
76	H	0.5768	0.877504	0.196671
77	H	0.493532	0.877537	0.196615
78	C	0.349743	0.742925	0.167779
79	C	0.349715	0.692795	0.167856
80	H	0.374777	0.676087	0.182115
81	H	0.374816	0.75969	0.181994
82	C	0.664033	0.909282	0.174467
83	H	0.641661	0.932721	0.162777
84	C	0.406381	0.909274	0.174298
85	N	0.377385	0.880648	0.156024
86	C	0.346081	0.848892	0.169533
87	H	0.428935	0.932538	0.162615
88	C	0.931185	0.935316	0.023883
89	C	0.982025	0.934728	0.023436
90	H	0.991738	0.876992	0.057235
91	C	0.784758	0.743079	0.127535
92	C	0.752826	0.768935	0.148506
93	C	0.753336	0.820004	0.148822
94	C	0.784683	0.844462	0.1274
95	C	0.81607	0.819925	0.106047
96	C	0.816666	0.768859	0.106507
97	C	0.720154	0.74248	0.16788
98	C	0.849373	0.742348	0.0872
99	H	0.78463	0.881261	0.127331
100	C	0.784744	0.691615	0.127564
101	C	0.720122	0.69235	0.167894
102	C	0.849376	0.692214	0.087243
103	H	0.695052	0.675639	0.182143
104	H	0.695088	0.759242	0.182103
105	H	0.874457	0.675449	0.073033
106	H	0.874429	0.759073	0.072947
107	C	0.904884	0.909317	0.0798
108	N	0.876274	0.880562	0.09826
109	C	0.845265	0.848333	0.084961
110	C	0.842128	0.8462	0.050153
111	N	0.870817	0.874877	0.031695
112	C	0.902871	0.906055	0.044994
113	H	0.927292	0.932886	0.09133
114	H	0.818696	0.82366	0.038619
115	N	0.692897	0.880512	0.156207
116	C	0.723923	0.848487	0.16972
117	C	0.286081	0.193009	0.376741
118	C	0.318007	0.167244	0.355717
119	C	0.317411	0.116177	0.355245
120	C	0.285975	0.091616	0.376551
121	C	0.2546	0.116068	0.397958
122	C	0.254123	0.167138	0.397682
123	H	0.285914	0.054817	0.376467
124	C	0.286082	0.244472	0.376798
125	C	0.317989	0.270347	0.355821
126	C	0.317377	0.32142	0.355452
127	C	0.254635	0.321297	0.398223
128	C	0.254146	0.270232	0.397817
129	H	0.320424	0.32519	0.288015
130	H	0.320029	0.112375	0.28783
131	C	0.510137	0.034462	0.292174
132	C	0.560045	0.034464	0.292194
133	H	0.576704	0.059527	0.306531
134	H	0.49345	0.059509	0.306509
135	C	0.350716	0.193776	0.336422
136	C	0.350708	0.243911	0.336474
137	H	0.375769	0.26069	0.322253
138	H	0.375772	0.177065	0.322159
139	C	0.663562	0.027196	0.3291
140	C	0.665571	0.030463	0.294294
141	H	0.641151	0.003629	0.340631
142	C	0.406584	0.027123	0.329039
143	N	0.377831	0.055743	0.347493
144	C	0.346673	0.087813	0.334178
145	C	0.343548	0.089936	0.299373
146	N	0.372382	0.061399	0.280926
147	C	0.404589	0.030384	0.29423
148	H	0.429085	0.003649	0.340574
149	C	0.783688	0.193425	0.37684
150	C	0.815624	0.167569	0.397808
151	C	0.81511	0.116499	0.398126
152	C	0.783762	0.092041	0.376704
153	C	0.752379	0.116579	0.355351
154	C	0.751776	0.167645	0.355813
155	C	0.719076	0.194156	0.336501
156	H	0.783816	0.055241	0.376635
157	C	0.783705	0.244887	0.37687
158	C	0.815674	0.270667	0.39785
159	C	0.815213	0.321736	0.398215
160	C	0.75239	0.321811	0.355509
161	C	0.75178	0.270741	0.355895
162	C	0.719069	0.24429	0.336551
163	H	0.694006	0.261056	0.322324
164	H	0.694024	0.177431	0.322245
165	N	0.692172	0.055947	0.347562
166	C	0.723184	0.088172	0.334262
167	C	0.726321	0.090307	0.299454
168	N	0.697632	0.061636	0.280997
169	H	0.74976	0.112842	0.287921
170	H	0.749589	0.325734	0.288097
171	C	0.285966	0.345856	0.376847
172	H	0.285888	0.382654	0.376852
173	H	0.319322	0.611041	0.216331
174	C	0.560327	0.468569	0.252097
175	C	0.586054	0.500403	0.230941
176	C	0.6369	0.499808	0.230555
177	C	0.661246	0.468458	0.252078
178	C	0.63685	0.437182	0.273614
179	C	0.586011	0.436691	0.273248
180	C	0.559699	0.533062	0.211454
181	C	0.559638	0.404089	0.292765
182	C	0.509091	0.468612	0.252115
183	C	0.48339	0.500511	0.23099
184	C	0.432539	0.500013	0.230649
185	C	0.408162	0.468658	0.252152
186	C	0.432543	0.437304	0.273641
187	C	0.483382	0.436756	0.273265
188	C	0.50978	0.53313	0.21149
189	H	0.371525	0.468648	0.252162
190	C	0.50973	0.404122	0.292772
191	H	0.49305	0.379101	0.307134
192	H	0.576297	0.379047	0.30712
193	C	0.342889	0.588742	0.204708
194	N	0.371843	0.56018	0.223046
195	C	0.404129	0.529342	0.209633
196	C	0.343683	0.347825	0.299627
197	N	0.372371	0.376628	0.281262
198	C	0.4042	0.407943	0.294665
199	C	0.40596	0.411223	0.329473
200	N	0.37736	0.382327	0.347839
201	C	0.346592	0.349945	0.334445
202	H	0.428185	0.434892	0.341075
203	C	0.665214	0.407889	0.294675
204	C	0.663334	0.411108	0.329488
205	H	0.640926	0.434623	0.341073
206	C	0.665364	0.529083	0.209537
207	C	0.783841	0.34628	0.376857
208	H	0.783919	0.38308	0.37684
209	H	0.697886	0.468411	0.252075
210	C	0.72615	0.348205	0.299689
211	N	0.697318	0.376825	0.281304
212	N	0.692079	0.382395	0.347878
213	C	0.723127	0.35027	0.334502
214	C	0.726842	0.58825	0.204659
215	N	0.697771	0.559778	0.222971
216	H	0.750481	0.61045	0.216303
217	H	0.31946	0.824944	0.216039
218	C	0.509505	0.967119	0.251571
219	C	0.483807	0.935223	0.230441
220	C	0.432957	0.935729	0.230089
221	C	0.40859	0.967058	0.251616
222	C	0.43296	0.998408	0.273114
223	C	0.483796	0.998993	0.272707
224	C	0.510198	0.902582	0.210961
225	H	0.37195	0.967029	0.251653
226	C	0.560744	0.967112	0.251598
227	C	0.586478	0.935187	0.230513
228	C	0.637328	0.935668	0.230222
229	C	0.661671	0.967029	0.251739
230	C	0.637257	0.998423	0.273184
231	C	0.586421	0.999003	0.272741
232	C	0.560116	0.902557	0.211003
233	C	0.665764	0.906245	0.209289
234	C	0.343068	0.847129	0.204352
235	N	0.372143	0.875669	0.222612
236	C	0.404511	0.906353	0.209124
237	H	0.69831	0.966986	0.251806
238	C	0.726803	0.846605	0.204544
239	N	0.697857	0.875293	0.222798
240	H	0.750231	0.824241	0.216239
241	C	0.061024	0.033934	0.460275
242	C	0.011103	0.03394	0.4603
243	H	0.077688	0.05897	0.445921
244	C	0.221478	0.193575	0.417087
245	C	0.22149	0.243705	0.417154
246	H	0.196444	0.26041	0.431427
247	H	0.19641	0.176807	0.431306
248	H	0.251879	0.325455	0.465633
249	C	0.164839	0.027237	0.423604
250	N	0.19384	0.05586	0.40533
251	C	0.225152	0.087605	0.418842
252	C	0.228157	0.089375	0.45366
253	N	0.199079	0.060835	0.471919
254	C	0.166709	0.030154	0.458429
255	H	0.142278	0.003977	0.411918
256	H	0.251764	0.11156	0.465349
257	H	0.991646	0.059003	0.44598
258	C	0.848302	0.194019	0.417176
259	C	0.848316	0.244149	0.417208
260	H	0.873397	0.260861	0.431447
261	H	0.873358	0.177257	0.43141
262	C	0.904416	0.027224	0.423774
263	N	0.875549	0.055993	0.405513
264	C	0.844516	0.088013	0.419025
265	C	0.841643	0.089901	0.453848
266	N	0.870589	0.061215	0.472105
267	C	0.902682	0.030262	0.458597
268	H	0.926788	0.003788	0.412083
269	H	0.818211	0.112268	0.465544
270	H	0.817968	0.326048	0.465606
271	C	0.010888	0.467931	0.501407
272	C	0.011522	0.40343	0.460767
273	C	0.062126	0.467888	0.501425
274	C	0.087828	0.435988	0.480301
275	C	0.138679	0.436494	0.479955
276	C	0.163053	0.467845	0.501462
277	C	0.061441	0.403372	0.460799
278	H	0.078104	0.378327	0.446449
279	C	0.228316	0.347759	0.454009
280	N	0.199369	0.376327	0.472349
281	C	0.167093	0.407176	0.458936
282	C	0.165153	0.410226	0.42412
283	N	0.194025	0.381582	0.405772
284	C	0.225241	0.349666	0.419195
285	H	0.142644	0.433601	0.412496
286	C	0.011574	0.532406	0.542077
287	C	0.13867	0.499199	0.522953
288	C	0.087832	0.499744	0.522575
289	H	0.199691	0.467862	0.501469
290	C	0.061482	0.532385	0.542077
291	H	0.078161	0.557387	0.556454
292	C	0.227521	0.588684	0.54894
293	N	0.198838	0.559879	0.530574
294	C	0.167014	0.528557	0.543975
295	C	0.165252	0.525277	0.578786
296	N	0.193846	0.554175	0.597149
297	C	0.224604	0.586569	0.583758
298	H	0.250779	0.611317	0.537325
299	H	0.143031	0.501604	0.590385
300	C	0.982389	0.436092	0.480249
301	C	0.931542	0.436691	0.479862
302	C	0.907196	0.468038	0.501383
303	H	0.99206	0.378431	0.446395
304	C	0.841604	0.348251	0.453962
305	N	0.870678	0.376721	0.472275
306	C	0.903082	0.407416	0.458842
307	C	0.905023	0.410409	0.424021
308	N	0.87602	0.381858	0.405693
309	C	0.844669	0.350104	0.419148
310	H	0.927616	0.433684	0.41238
311	C	0.931588	0.499314	0.522923
312	C	0.982428	0.499808	0.522555
313	H	0.870557	0.468081	0.501383
314	H	0.992138	0.557441	0.556434
315	C	0.842303	0.588297	0.549001
316	N	0.871128	0.559671	0.530616
317	C	0.903221	0.528596	0.543987
318	C	0.905112	0.525381	0.578798
319	N	0.87637	0.5541	0.597191
320	C	0.845329	0.586236	0.583815
321	H	0.818871	0.610772	0.537409
322	H	0.927513	0.501862	0.590383
323	C	0.061713	0.96661	0.500878
324	C	0.087413	0.998512	0.479753
325	C	0.138264	0.998003	0.479397
326	C	0.16263	0.966671	0.50092
327	C	0.010475	0.966617	0.500906
328	C	0.138258	0.935323	0.522422
329	C	0.087422	0.934732	0.522012
330	C	0.061081	0.902044	0.541482
331	H	0.199269	0.966703	0.500958
332	C	0.011172	0.902037	0.541496
333	H	0.077767	0.877002	0.555822
334	C	0.220507	0.742735	0.585722
335	C	0.220512	0.692601	0.585774
336	H	0.195432	0.675822	0.57157
337	H	0.195434	0.759446	0.571476
338	C	0.164635	0.909385	0.578344
339	N	0.193392	0.880766	0.596798
340	C	0.224549	0.848695	0.583486
341	C	0.227671	0.846569	0.548678
342	N	0.198836	0.875106	0.530231
343	C	0.16663	0.906124	0.543538
344	H	0.142136	0.932861	0.589881
345	H	0.251189	0.82413	0.537135
346	C	0.981967	0.998545	0.47982
347	C	0.931117	0.998064	0.47953
348	C	0.906772	0.96671	0.501049
349	C	0.931185	0.935313	0.522496
350	C	0.982025	0.934725	0.522049
351	H	0.870135	0.966753	0.501118
352	H	0.991738	0.876992	0.555846
353	C	0.849366	0.742348	0.585811
354	C	0.849373	0.692214	0.585853
355	H	0.87445	0.675449	0.571644
356	H	0.874425	0.759073	0.571558
357	C	0.904884	0.909314	0.57841
358	N	0.87627	0.880558	0.596872
359	C	0.845265	0.848329	0.583572
360	C	0.842128	0.8462	0.548764
361	N	0.870813	0.874873	0.530305
362	C	0.902871	0.906052	0.543604
363	H	0.927292	0.932882	0.589943
364	H	0.818693	0.823664	0.537229
365	H	0.320418	0.32519	0.786625
366	H	0.320026	0.112374	0.78644
367	C	0.510133	0.034459	0.790787
368	C	0.560041	0.034461	0.790806
369	C	0.665568	0.03046	0.792907
370	C	0.343545	0.089934	0.797983
371	N	0.372378	0.061397	0.779536
372	C	0.404586	0.030382	0.792843
373	C	0.726317	0.090306	0.798069
374	N	0.697629	0.061634	0.77961
375	H	0.749753	0.112841	0.786534
376	H	0.749585	0.325732	0.786709
377	C	0.253828	0.615088	0.604762
378	C	0.285231	0.590649	0.626157
379	C	0.316564	0.615206	0.647535
380	H	0.285303	0.553849	0.626165
381	H	0.319318	0.611041	0.714945
382	C	0.253225	0.666161	0.605126
383	C	0.31706	0.666269	0.647127
384	C	0.560323	0.468565	0.75071
385	C	0.58605	0.500403	0.729552
386	C	0.6369	0.499805	0.729167
387	C	0.661242	0.468454	0.750688
388	C	0.636847	0.437179	0.772226
389	C	0.586007	0.436687	0.77186
390	C	0.559695	0.533059	0.710065
391	C	0.559635	0.404086	0.791375
392	C	0.509088	0.468612	0.750727
393	C	0.483386	0.500507	0.729601
394	C	0.432536	0.500013	0.72926
395	C	0.408158	0.468658	0.750764
396	C	0.432539	0.4373	0.772253
397	C	0.483379	0.436752	0.771875
398	C	0.509776	0.533127	0.710102
399	H	0.371522	0.468648	0.750774
400	C	0.509726	0.404118	0.791385
401	H	0.493114	0.558179	0.695762
402	H	0.576382	0.558079	0.69571
403	C	0.342885	0.588742	0.703321
404	N	0.371839	0.56018	0.721659
405	C	0.404125	0.529342	0.708246
406	C	0.406052	0.526284	0.673428
407	N	0.377175	0.554925	0.655082
408	C	0.345956	0.586835	0.668508
409	H	0.428564	0.502912	0.661803
410	C	0.343677	0.347824	0.798237
411	N	0.372364	0.376624	0.779874
412	C	0.404197	0.407939	0.793275
413	C	0.665211	0.407885	0.793287
414	C	0.665361	0.52908	0.70815
415	C	0.663423	0.52609	0.673326
416	H	0.640829	0.502816	0.661687
417	C	0.752768	0.665831	0.647155
418	C	0.753232	0.614766	0.647523
419	C	0.784612	0.590222	0.62617
420	C	0.816063	0.61469	0.604822
421	C	0.816666	0.66576	0.605202
422	H	0.784537	0.553423	0.626152
423	H	0.697882	0.468407	0.750688
424	C	0.726146	0.348203	0.798304
425	N	0.697315	0.376825	0.779919
426	C	0.726838	0.588247	0.703269
427	N	0.697768	0.559775	0.721583
428	N	0.692422	0.554641	0.655
429	C	0.723776	0.586394	0.668456
430	H	0.750474	0.61045	0.714913
431	C	0.285135	0.743495	0.626046
432	C	0.253212	0.769264	0.605022
433	C	0.253812	0.82033	0.60455
434	C	0.285247	0.844888	0.625858
435	C	0.316621	0.820434	0.647266
436	C	0.317091	0.769365	0.646992
437	H	0.285312	0.881687	0.625774
438	C	0.28513	0.692035	0.626106
439	H	0.319454	0.82494	0.714654
440	C	0.509502	0.967115	0.750183
441	C	0.483804	0.93522	0.729053
442	C	0.432953	0.935729	0.728702
443	C	0.408586	0.967054	0.750228
444	C	0.432957	0.998405	0.771727
445	C	0.483793	0.998989	0.771319
446	C	0.510194	0.902578	0.709575
447	H	0.371947	0.967025	0.750265
448	C	0.560741	0.967108	0.750211
449	C	0.586475	0.935184	0.729125
450	C	0.637325	0.935664	0.728833
451	C	0.661671	0.967025	0.750352
452	C	0.637254	0.998419	0.771796
453	C	0.586418	0.999003	0.771354
454	C	0.560113	0.902553	0.709615
455	H	0.576796	0.877504	0.695282
456	H	0.493528	0.877533	0.695228
457	C	0.349738	0.742925	0.666392
458	C	0.34971	0.692795	0.666471
459	H	0.374769	0.676087	0.68073
460	H	0.374812	0.75969	0.680609
461	C	0.664026	0.909282	0.673079
462	C	0.66576	0.906242	0.7079
463	H	0.641654	0.932718	0.661388
464	C	0.406377	0.909271	0.672911
465	N	0.377378	0.880644	0.654637
466	C	0.346075	0.848889	0.668147
467	C	0.343062	0.847125	0.702965
468	N	0.372136	0.875669	0.721224
469	C	0.404507	0.906349	0.707737
470	H	0.428931	0.932535	0.661228
471	H	0.698307	0.966986	0.750418
472	C	0.784751	0.743075	0.626145
473	C	0.752818	0.768931	0.647115
474	C	0.753329	0.820004	0.647431
475	C	0.784676	0.844462	0.626009
476	C	0.816063	0.819925	0.604656
477	C	0.816659	0.768859	0.605116
478	C	0.720147	0.74248	0.666489
479	H	0.784626	0.881261	0.625942
480	C	0.784737	0.691615	0.626175
481	C	0.720115	0.69235	0.666504
482	H	0.695045	0.675639	0.680752
483	H	0.695081	0.759242	0.680713
484	N	0.692889	0.880512	0.654818
485	C	0.723919	0.848484	0.66833
486	C	0.726799	0.846605	0.703153
487	N	0.697857	0.875293	0.72141
488	H	0.750228	0.824237	0.714849
489	C	0.061024	0.033932	0.958888
490	C	0.011103	0.033939	0.958913
491	H	0.077688	0.058968	0.944531
492	C	0.286076	0.193007	0.875351
493	C	0.318002	0.167243	0.854327
494	C	0.317406	0.116176	0.853855
495	C	0.285971	0.091614	0.875161
496	C	0.254596	0.116066	0.896568
497	C	0.254118	0.167137	0.896292
498	C	0.221473	0.193573	0.915697
499	H	0.28591	0.054815	0.875077
500	C	0.286076	0.24447	0.875408
501	C	0.317984	0.270346	0.854431
502	C	0.317371	0.321418	0.854062
503	C	0.25463	0.321295	0.896833
504	C	0.25414	0.27023	0.896427
505	C	0.221485	0.243702	0.915764
506	H	0.196439	0.260408	0.930037
507	H	0.196405	0.176805	0.929916
508	H	0.251875	0.325451	0.964245
509	C	0.164838	0.027233	0.922214
510	N	0.193838	0.055856	0.903942
511	C	0.225149	0.087603	0.917452
512	C	0.228154	0.089375	0.952273
513	N	0.199077	0.060834	0.970529
514	C	0.166708	0.030152	0.957042
515	H	0.142278	0.003973	0.91053
516	H	0.251761	0.11156	0.963959
517	H	0.5767	0.059524	0.805144
518	H	0.493446	0.059506	0.805122
519	C	0.350711	0.193774	0.835032
520	C	0.350702	0.243909	0.835084
521	H	0.375761	0.260689	0.820863
522	H	0.375765	0.177064	0.820769
523	C	0.663558	0.027193	0.827713
524	H	0.641147	0.003625	0.839243
525	C	0.406581	0.027121	0.827648
526	N	0.377828	0.055742	0.846103
527	C	0.346669	0.087812	0.832788
528	H	0.429081	0.003647	0.839186
529	H	0.991646	0.059002	0.94459
530	C	0.783684	0.193423	0.875455
531	C	0.81562	0.167567	0.89642
532	C	0.815106	0.116497	0.896741
533	C	0.783759	0.092039	0.875317
534	C	0.752372	0.116577	0.853964
535	C	0.751773	0.167643	0.854428
536	C	0.848295	0.194017	0.915791
537	C	0.719073	0.194155	0.835116
538	H	0.783809	0.055239	0.875247
539	C	0.783698	0.244885	0.875482
540	C	0.81567	0.270665	0.896465
541	C	0.81521	0.321734	0.896828
542	C	0.752387	0.32181	0.854124
543	C	0.751776	0.27074	0.854507
544	C	0.848309	0.244147	0.915823
545	C	0.719062	0.244288	0.835166
546	H	0.873394	0.260859	0.93006
547	H	0.873351	0.177255	0.930025
548	H	0.693999	0.261054	0.820939
549	H	0.694021	0.177429	0.820858
550	N	0.692169	0.055944	0.846175
551	C	0.72318	0.08817	0.832875
552	C	0.904413	0.027225	0.922387
553	N	0.875546	0.055992	0.904125
554	C	0.844512	0.088011	0.917637
555	C	0.841639	0.089898	0.952463
556	N	0.870585	0.061213	0.970717
557	C	0.902682	0.030262	0.957207
558	H	0.926788	0.00379	0.910696
559	H	0.818207	0.112264	0.964156
560	H	0.817965	0.326049	0.96422
561	C	0.285961	0.345854	0.875457
562	H	0.285884	0.382654	0.875462
563	C	0.011522	0.40343	0.95938
564	C	0.087828	0.435988	0.978914
565	C	0.138679	0.436494	0.978568
566	C	0.061441	0.403369	0.959412
567	H	0.078104	0.378327	0.945062
568	C	0.228312	0.347756	0.952621
569	N	0.199367	0.376323	0.970962
570	C	0.167092	0.407176	0.957548
571	C	0.165152	0.410226	0.922733
572	N	0.194022	0.381582	0.904382
573	C	0.225237	0.349664	0.917808
574	H	0.142643	0.433601	0.911108
575	H	0.493046	0.379098	0.805747
576	H	0.576293	0.379044	0.805732
577	C	0.405956	0.411219	0.828086
578	N	0.377357	0.382324	0.846451
579	C	0.346587	0.349943	0.833055
580	H	0.428182	0.434884	0.839688
581	C	0.663326	0.411108	0.828101
582	H	0.640922	0.434623	0.839685
583	H	0.870557	0.468081	0.999995
584	C	0.783837	0.346278	0.875472
585	H	0.783916	0.383076	0.875453
586	C	0.982389	0.436092	0.978862
587	C	0.931542	0.436687	0.978474
588	C	0.907196	0.468038	0.999995
589	H	0.99206	0.378427	0.94501
590	N	0.692076	0.382395	0.846493
591	C	0.72312	0.350268	0.833115
592	C	0.841604	0.34825	0.952577
593	N	0.870674	0.376721	0.970888
594	C	0.903082	0.407412	0.957455
595	C	0.905019	0.410405	0.922634
596	N	0.87602	0.381858	0.904308
597	C	0.844666	0.350102	0.917761
598	H	0.927616	0.43368	0.910992
599	H	0.199269	0.966699	0.99957
600	C	0.061712	0.96661	0.999491
601	C	0.087413	0.998509	0.978363
602	C	0.138264	0.998	0.978007
603	C	0.16263	0.966671	0.999533
604	C	0.010475	0.966617	0.999518
605	H	0.870135	0.966753	0.999731
606	C	0.981967	0.998545	0.978429
607	C	0.931117	0.998064	0.97814
608	C	0.906772	0.96671	0.999661
