data_C480H144N96_2018-02-15_12:17:08
#******************************************
#
# CIF file created by Zeo++
# Zeo++ is an open source package to
# analyze microporous materials
#
#*******************************************

_cell_length_a		26.5517   
_cell_length_b		26.5511   
_cell_length_c		26.541   
_cell_angle_alpha		89.9897   
_cell_angle_beta		89.9949   
_cell_angle_gamma		89.9987   

_symmetry_space_group_name_H-M		'P1'
_symmetry_Int_Tables_number		1
_symmetry_cell_setting		Triclinic

loop_
_symmetry_equiv_pos_as_xyz
'+x,+y,+z'

loop_
_atom_site_label
_atom_site_type_symbol
_atom_site_fract_x
_atom_site_fract_y
_atom_site_fract_z
1	C	0.194036	0.131214	0.194107
2	N	0.152074	0.152084	0.214662
3	C	0.131214	0.194059	0.194118
4	N	0.152098	0.214623	0.15215
5	C	0.194054	0.194072	0.131262
6	N	0.214593	0.152102	0.152138
7	C	0.88752	0.950321	0.194048
8	N	0.929509	0.929471	0.214571
9	C	0.95038	0.887507	0.194022
10	N	0.929482	0.866939	0.152074
11	C	0.887501	0.887469	0.131212
12	N	0.866953	0.929426	0.152096
13	C	0.887534	0.131264	0.887497
14	N	0.929525	0.152111	0.86697
15	C	0.950417	0.19405	0.887539
16	N	0.92954	0.214599	0.929508
17	C	0.88756	0.19407	0.950373
18	N	0.866988	0.152136	0.929474
19	C	0.194001	0.950355	0.887452
20	N	0.152047	0.929482	0.866895
21	C	0.131179	0.88751	0.887441
22	N	0.152051	0.866953	0.929417
23	C	0.193998	0.88751	0.950309
24	N	0.214541	0.929474	0.929432
25	C	0.131253	0.194043	0.887527
26	N	0.152109	0.152071	0.866978
27	C	0.194081	0.131193	0.887508
28	N	0.214649	0.152075	0.929466
29	C	0.19412	0.194044	0.950355
30	N	0.152154	0.214592	0.929481
31	C	0.950349	0.88754	0.887444
32	N	0.929511	0.929546	0.866937
33	C	0.887564	0.950426	0.887508
34	N	0.866997	0.92952	0.929462
35	C	0.887511	0.887518	0.950306
36	N	0.929454	0.866961	0.929402
37	C	0.131217	0.887556	0.194072
38	N	0.152098	0.929509	0.214634
39	C	0.194076	0.950378	0.194098
40	N	0.214621	0.929509	0.152116
41	C	0.194067	0.887563	0.131219
42	N	0.152099	0.867022	0.152096
43	C	0.950381	0.194043	0.194152
44	N	0.929534	0.152039	0.21466
45	C	0.887588	0.131159	0.194085
46	N	0.867039	0.152069	0.152126
47	C	0.887558	0.194065	0.131281
48	N	0.929496	0.214618	0.152191
49	C	0.194031	0.631228	0.694068
50	N	0.152054	0.652078	0.714606
51	C	0.131171	0.694031	0.694038
52	N	0.152047	0.714584	0.652062
53	C	0.194021	0.694054	0.631196
54	N	0.214585	0.652108	0.652096
55	C	0.887555	0.450369	0.694102
56	N	0.929532	0.429519	0.71464
57	C	0.950403	0.387558	0.694095
58	N	0.929516	0.366988	0.652141
59	C	0.887532	0.387509	0.631279
60	N	0.866988	0.429473	0.652156
61	C	0.887499	0.631196	0.387468
62	N	0.929483	0.652043	0.36693
63	C	0.950352	0.694003	0.387475
64	N	0.929453	0.714575	0.429425
65	C	0.887469	0.694052	0.450288
66	N	0.866924	0.652096	0.429414
67	C	0.194064	0.45036	0.387517
68	N	0.152093	0.429506	0.366977
69	C	0.131229	0.387538	0.387528
70	N	0.152115	0.366969	0.42949
71	C	0.194086	0.387504	0.450355
72	N	0.214631	0.429464	0.429471
73	C	0.131183	0.693988	0.387483
74	N	0.152068	0.652028	0.366949
75	C	0.194057	0.631192	0.387483
76	N	0.214619	0.652107	0.429429
77	C	0.19406	0.694067	0.450295
78	N	0.152071	0.714571	0.429429
79	C	0.950401	0.387575	0.387532
80	N	0.929506	0.429513	0.366949
81	C	0.887526	0.450364	0.387479
82	N	0.866978	0.429495	0.429463
83	C	0.887552	0.387557	0.450378
84	N	0.929529	0.36703	0.429516
85	C	0.131232	0.387565	0.694076
86	N	0.152091	0.429541	0.714606
87	C	0.194064	0.450399	0.694061
88	N	0.214642	0.429496	0.652115
89	C	0.194108	0.38752	0.631256
90	N	0.152132	0.366992	0.652126
91	C	0.950348	0.69405	0.694027
92	N	0.929497	0.652082	0.714591
93	C	0.887536	0.631201	0.694053
94	N	0.866968	0.652074	0.652084
95	C	0.887498	0.694042	0.631192
96	N	0.92946	0.714595	0.652054
97	C	0.69403	0.13125	0.694087
98	N	0.652072	0.152123	0.714648
99	C	0.631215	0.194107	0.694117
100	N	0.652106	0.214679	0.652152
101	C	0.694064	0.194131	0.63126
102	N	0.71459	0.152148	0.652126
103	C	0.387527	0.950329	0.694035
104	N	0.429515	0.929487	0.714557
105	C	0.450386	0.887515	0.694023
106	N	0.429469	0.866924	0.652096
107	C	0.387481	0.887436	0.631237
108	N	0.366943	0.929411	0.652099
109	C	0.387538	0.131249	0.387513
110	N	0.429533	0.15209	0.366984
111	C	0.450418	0.194042	0.387536
112	N	0.429519	0.214617	0.429482
113	C	0.387531	0.194103	0.450348
114	N	0.366977	0.152149	0.429467
115	C	0.693997	0.95032	0.387472
116	N	0.652051	0.92944	0.366906
117	C	0.631189	0.887457	0.387438
118	N	0.65207	0.866896	0.42941
119	C	0.694012	0.887449	0.45031
120	N	0.714543	0.929432	0.429444
121	C	0.631265	0.194039	0.387521
122	N	0.65211	0.152047	0.367006
123	C	0.69408	0.131173	0.387543
124	N	0.714662	0.152088	0.429482
125	C	0.694152	0.194084	0.450336
126	N	0.652183	0.214618	0.429456
127	C	0.45035	0.887498	0.387453
128	N	0.429516	0.929508	0.366949
129	C	0.387576	0.950403	0.387528
130	N	0.367007	0.929489	0.429482
131	C	0.387508	0.887479	0.450318
132	N	0.429448	0.866919	0.429407
133	C	0.631234	0.88756	0.694076
134	N	0.652107	0.929532	0.714606
135	C	0.694079	0.950397	0.694061
136	N	0.71464	0.929498	0.652099
137	C	0.694105	0.887522	0.631234
138	N	0.652133	0.866996	0.652118
139	C	0.450372	0.194086	0.694148
140	N	0.429533	0.152073	0.714644
141	C	0.387598	0.131179	0.694061
142	N	0.367046	0.152091	0.652103
143	C	0.387553	0.194099	0.631264
144	N	0.429488	0.21466	0.652186
145	C	0.694026	0.631216	0.19405
146	N	0.652034	0.652059	0.214564
147	C	0.631162	0.694016	0.193995
148	N	0.652072	0.714591	0.152047
149	C	0.694064	0.694072	0.131205
150	N	0.714611	0.652115	0.152101
151	C	0.387556	0.450342	0.194082
152	N	0.429541	0.429492	0.214604
153	C	0.450401	0.38752	0.19406
154	N	0.429487	0.366943	0.152125
155	C	0.387499	0.387467	0.131277
156	N	0.366968	0.429439	0.152147
157	C	0.387501	0.631223	0.88749
158	N	0.429493	0.65207	0.866967
159	C	0.450347	0.694042	0.887508
160	N	0.429425	0.714621	0.92944
161	C	0.387434	0.694102	0.95029
162	N	0.366905	0.65213	0.929421
163	C	0.694062	0.450368	0.887535
164	N	0.652075	0.429521	0.867019
165	C	0.63122	0.387546	0.887569
166	N	0.652142	0.366958	0.929504
167	C	0.694133	0.387478	0.950347
168	N	0.71466	0.429454	0.929466
169	C	0.631183	0.694015	0.887516
170	N	0.652051	0.652043	0.866978
171	C	0.694043	0.631204	0.887505
172	N	0.714625	0.652119	0.929436
173	C	0.694085	0.694087	0.950306
174	N	0.652097	0.714602	0.929451
175	C	0.450388	0.387583	0.887565
176	N	0.429513	0.42954	0.867001
177	C	0.387521	0.450383	0.887516
178	N	0.366944	0.429488	0.929474
179	C	0.387494	0.387531	0.95037
180	N	0.429482	0.367013	0.929523
181	C	0.631233	0.387539	0.194042
182	N	0.652076	0.429518	0.214576
183	C	0.694052	0.450383	0.194042
184	N	0.71465	0.42948	0.152108
185	C	0.694135	0.387501	0.131245
186	N	0.652155	0.366962	0.152106
187	C	0.450334	0.694046	0.193993
188	N	0.429498	0.652055	0.214539
189	C	0.387529	0.631182	0.194014
190	N	0.366934	0.652081	0.152072
191	C	0.387443	0.694068	0.131195
192	N	0.429412	0.714617	0.15205
193	C	0.309867	0.30987	0.040818
194	C	0.32899	0.329007	0.994294
195	C	0.366867	0.366899	0.994539
196	C	0.385251	0.38525	0.040823
197	C	0.366874	0.366861	0.087108
198	C	0.328984	0.328982	0.087348
199	C	0.309436	0.30944	0.94878
200	C	0.309411	0.309406	0.132861
201	H	0.412612	0.412608	0.040825
202	C	0.271705	0.271695	0.040814
203	C	0.252603	0.252565	0.994286
204	C	0.214737	0.21466	0.994524
205	C	0.196341	0.196296	0.040808
206	C	0.214686	0.21469	0.087093
207	C	0.252571	0.252572	0.087342
208	C	0.272176	0.272144	0.948776
209	H	0.168983	0.168931	0.040809
210	C	0.272128	0.272134	0.132858
211	H	0.259571	0.259521	0.91461
212	H	0.322061	0.322066	0.914617
213	H	0.259503	0.259509	0.167019
214	H	0.322027	0.322018	0.167024
215	C	0.771722	0.77169	0.040755
216	C	0.752603	0.752577	0.994226
217	C	0.714705	0.714707	0.994471
218	C	0.696313	0.696337	0.040755
219	C	0.714699	0.714693	0.087038
220	C	0.752594	0.752563	0.087284
221	C	0.772176	0.772148	0.948716
222	C	0.772155	0.772121	0.132799
223	H	0.668944	0.668982	0.040756
224	C	0.809892	0.809854	0.040756
225	C	0.829019	0.828985	0.99423
226	C	0.866891	0.866882	0.994475
227	C	0.885257	0.885252	0.040758
228	C	0.866885	0.86686	0.087043
229	C	0.829005	0.828971	0.087286
230	C	0.809457	0.809423	0.948716
231	H	0.912614	0.912618	0.040759
232	C	0.809436	0.809397	0.1328
233	H	0.822077	0.822054	0.914553
234	H	0.759555	0.759537	0.914553
235	H	0.822049	0.822011	0.166963
236	H	0.759528	0.759498	0.166961
237	C	0.771782	0.309879	0.040808
238	C	0.752656	0.329003	0.087333
239	C	0.714767	0.366883	0.087082
240	C	0.69638	0.385242	0.040795
241	C	0.714758	0.366866	0.994516
242	C	0.752654	0.328994	0.994279
243	C	0.772226	0.309441	0.13285
244	C	0.772224	0.309428	0.948765
245	H	0.66901	0.412597	0.040789
246	C	0.80995	0.271711	0.040815
247	C	0.829071	0.252592	0.087347
248	C	0.866949	0.214697	0.08711
249	C	0.885318	0.196311	0.040827
250	C	0.866943	0.214689	0.994543
251	C	0.829066	0.252582	0.99429
252	C	0.809505	0.272163	0.132857
253	H	0.912672	0.168943	0.040829
254	C	0.809504	0.27215	0.948772
255	H	0.822122	0.259543	0.167021
256	H	0.759605	0.322062	0.16701
257	H	0.822124	0.259527	0.914614
258	H	0.759603	0.322045	0.914602
259	C	0.309803	0.771712	0.040749
260	C	0.32893	0.752586	0.087276
261	C	0.366803	0.714686	0.087029
262	C	0.385176	0.696322	0.040741
263	C	0.366803	0.714707	0.99446
264	C	0.328917	0.752593	0.994219
265	C	0.309376	0.772159	0.132791
266	C	0.309345	0.772163	0.948708
267	H	0.412539	0.668959	0.040738
268	C	0.271642	0.809891	0.040754
269	C	0.252543	0.829031	0.087284
270	C	0.214679	0.866939	0.087047
271	C	0.196277	0.885293	0.040762
272	C	0.214619	0.866889	0.994479
273	C	0.252506	0.829004	0.99423
274	C	0.272115	0.809457	0.132795
275	H	0.168921	0.912659	0.040762
276	C	0.272064	0.809434	0.948712
277	H	0.25951	0.822083	0.166958
278	H	0.321998	0.759536	0.166952
279	H	0.259437	0.822054	0.91455
280	H	0.32196	0.759541	0.914546
281	C	0.040808	0.30991	0.309899
282	C	0.994303	0.329048	0.329021
283	C	0.994551	0.366946	0.366903
284	C	0.040815	0.385316	0.385279
285	C	0.087077	0.366921	0.366907
286	C	0.087319	0.329029	0.32902
287	C	0.948805	0.309479	0.309458
288	C	0.132813	0.309455	0.309447
289	H	0.040818	0.412681	0.412644
290	C	0.040803	0.271724	0.271739
291	C	0.994292	0.252592	0.252629
292	C	0.99453	0.214659	0.214781
293	C	0.040797	0.196266	0.196414
294	C	0.087064	0.214678	0.21475
295	C	0.087312	0.252593	0.252614
296	C	0.948802	0.272179	0.272192
297	H	0.040797	0.168886	0.169065
298	C	0.132809	0.272168	0.272169
299	H	0.914651	0.25955	0.259586
300	H	0.914659	0.322108	0.322079
301	H	0.166957	0.259539	0.259549
302	H	0.166963	0.322075	0.322062
303	C	0.04076	0.771679	0.771669
304	C	0.994252	0.752561	0.752544
305	C	0.994497	0.714674	0.714648
306	C	0.04076	0.696283	0.696276
307	C	0.087023	0.714652	0.714663
308	C	0.08727	0.752546	0.752548
309	C	0.948757	0.772131	0.772117
310	C	0.132766	0.772108	0.772117
311	H	0.040761	0.668918	0.668911
312	C	0.040761	0.809855	0.809836
313	C	0.994251	0.828992	0.828958
314	C	0.994499	0.866912	0.866816
315	C	0.040763	0.885303	0.885169
316	C	0.087028	0.866893	0.866816
317	C	0.087272	0.828981	0.828954
318	C	0.948757	0.809418	0.809395
319	H	0.040765	0.912683	0.912519
320	C	0.132767	0.809395	0.809392
321	H	0.914611	0.822048	0.82201
322	H	0.91461	0.759512	0.759495
323	H	0.166916	0.822018	0.822006
324	H	0.166914	0.759478	0.759499
325	C	0.040779	0.771645	0.309824
326	C	0.087285	0.752512	0.328955
327	C	0.087035	0.714605	0.36684
328	C	0.040767	0.696218	0.385211
329	C	0.994505	0.714613	0.366838
330	C	0.994267	0.752516	0.328945
331	C	0.132783	0.77209	0.309388
332	C	0.948776	0.772086	0.309365
333	H	0.040761	0.668847	0.41258
334	C	0.040785	0.809839	0.271657
335	C	0.087298	0.828986	0.25255
336	C	0.087062	0.86692	0.214691
337	C	0.040797	0.885303	0.196309
338	C	0.99453	0.866882	0.214649
339	C	0.994279	0.828964	0.252522
340	C	0.132789	0.809398	0.272117
341	H	0.0408	0.912689	0.168956
342	C	0.948782	0.809375	0.272078
343	H	0.16694	0.822032	0.259506
344	H	0.166929	0.759463	0.322009
345	H	0.914634	0.821999	0.259453
346	H	0.914623	0.759455	0.321979
347	C	0.040826	0.309918	0.771744
348	C	0.087334	0.329049	0.752612
349	C	0.087084	0.366949	0.714719
350	C	0.040819	0.385335	0.696348
351	C	0.994557	0.366943	0.714723
352	C	0.994314	0.329045	0.752619
353	C	0.13283	0.30948	0.772185
354	C	0.94882	0.309474	0.7722
355	H	0.040817	0.412703	0.668975
356	C	0.040829	0.271731	0.809915
357	C	0.08734	0.2526	0.829037
358	C	0.0871	0.21468	0.86691
359	C	0.040834	0.19628	0.885274
360	C	0.99457	0.214674	0.86691
361	C	0.99432	0.252595	0.829041
362	C	0.132833	0.272186	0.809467
363	H	0.040834	0.168896	0.912632
364	C	0.948825	0.272179	0.809482
365	H	0.166983	0.259562	0.822085
366	H	0.166977	0.32211	0.759563
367	H	0.914676	0.259552	0.822108
368	H	0.914673	0.3221	0.759586
369	C	0.309902	0.040816	0.309894
370	C	0.329043	0.99431	0.329021
371	C	0.366948	0.994556	0.3669
372	C	0.385326	0.040826	0.38526
373	C	0.366924	0.087093	0.366894
374	C	0.32902	0.08733	0.329013
375	C	0.309478	0.948813	0.309455
376	C	0.30944	0.132823	0.309436
377	H	0.412697	0.040829	0.412621
378	C	0.271718	0.040809	0.271727
379	C	0.252598	0.994298	0.252607
380	C	0.21469	0.99453	0.214729
381	C	0.196287	0.040797	0.196368
382	C	0.214666	0.087065	0.214733
383	C	0.252578	0.087317	0.252603
384	C	0.272187	0.948805	0.272177
385	H	0.168913	0.040797	0.16901
386	C	0.272149	0.132817	0.272159
387	H	0.25957	0.914654	0.259562
388	H	0.322111	0.914665	0.322075
389	H	0.259517	0.166965	0.259536
390	H	0.32206	0.166974	0.322047
391	C	0.771696	0.040835	0.771722
392	C	0.752582	0.994325	0.752589
393	C	0.714693	0.994557	0.714693
394	C	0.696296	0.040826	0.696329
395	C	0.714661	0.087095	0.714712
396	C	0.752557	0.087344	0.752597
397	C	0.772158	0.948831	0.772174
398	C	0.772116	0.132843	0.77217
399	H	0.668933	0.040827	0.668964
400	C	0.809875	0.040841	0.809889
401	C	0.829018	0.994333	0.829018
402	C	0.866933	0.994579	0.866884
403	C	0.885321	0.040847	0.88524
404	C	0.866916	0.087113	0.866876
405	C	0.828997	0.087353	0.82901
406	C	0.809444	0.948836	0.80946
407	H	0.912699	0.040848	0.91259
408	C	0.809406	0.132847	0.809444
409	H	0.822072	0.914688	0.822081
410	H	0.759543	0.914681	0.759559
411	H	0.822025	0.166998	0.822063
412	H	0.759485	0.166991	0.759552
413	C	0.309886	0.040758	0.771669
414	C	0.329041	0.087267	0.752555
415	C	0.366958	0.087024	0.714678
416	C	0.385329	0.040752	0.696303
417	C	0.366906	0.994486	0.714652
418	C	0.328996	0.994246	0.752533
419	C	0.309477	0.132763	0.772129
420	C	0.309407	0.948752	0.772102
421	H	0.412708	0.040749	0.668949
422	C	0.271699	0.040763	0.80984
423	C	0.252591	0.087275	0.828976
424	C	0.214689	0.087039	0.866869
425	C	0.196272	0.040772	0.885218
426	C	0.214633	0.994504	0.866827
427	C	0.252547	0.994254	0.82895
428	C	0.272184	0.132767	0.809411
429	H	0.168899	0.040772	0.912579
430	C	0.272112	0.948757	0.809384
431	H	0.259572	0.166918	0.822036
432	H	0.322117	0.166912	0.759518
433	H	0.259474	0.914609	0.821999
434	H	0.322023	0.914602	0.759484
435	C	0.771677	0.04074	0.309847
436	C	0.752572	0.087251	0.328994
437	C	0.714692	0.087015	0.366905
438	C	0.696278	0.040744	0.385256
439	C	0.714626	0.994477	0.366848
440	C	0.752525	0.994231	0.328957
441	C	0.772154	0.132744	0.309415
442	C	0.772079	0.948734	0.309372
443	H	0.668918	0.040742	0.412625
444	C	0.809859	0.040738	0.271673
445	C	0.829015	0.087247	0.252561
446	C	0.866944	0.087005	0.2147
447	C	0.885326	0.040737	0.196331
448	C	0.866897	0.99447	0.214672
449	C	0.828975	0.99423	0.252538
450	C	0.809439	0.132742	0.272128
451	H	0.912713	0.040736	0.168983
452	C	0.809375	0.948733	0.272093
453	H	0.822075	0.166891	0.259513
454	H	0.759542	0.166895	0.322041
455	H	0.82199	0.914582	0.259468
456	H	0.759442	0.914586	0.321984
457	C	0.309875	0.80982	0.540766
458	C	0.329011	0.828947	0.494238
459	C	0.366888	0.86684	0.494487
460	C	0.38524	0.885215	0.540778
461	C	0.366868	0.866819	0.587064
462	C	0.328987	0.828934	0.587298
463	C	0.309452	0.809389	0.448724
464	C	0.309411	0.809356	0.632809
465	H	0.412598	0.912581	0.540781
466	C	0.271698	0.77166	0.540759
467	C	0.252579	0.752551	0.494227
468	C	0.214667	0.714691	0.494464
469	C	0.196263	0.69633	0.540747
470	C	0.21465	0.714679	0.58703
471	C	0.25256	0.752538	0.587283
472	C	0.272166	0.772117	0.448716
473	H	0.168889	0.668979	0.540747
474	C	0.272125	0.772084	0.632801
475	H	0.259546	0.75951	0.414554
476	H	0.322079	0.822012	0.414562
477	H	0.259492	0.759465	0.666963
478	H	0.322023	0.821967	0.666975
479	C	0.771712	0.271765	0.540811
480	C	0.752614	0.252633	0.49428
481	C	0.71476	0.214714	0.49451
482	C	0.69637	0.196345	0.5408
483	C	0.714696	0.214754	0.587091
484	C	0.752572	0.252646	0.587339
485	C	0.772187	0.272217	0.448769
486	C	0.772122	0.272215	0.632854
487	H	0.669024	0.168972	0.5408
488	C	0.809882	0.309934	0.540819
489	C	0.829018	0.329063	0.494295
490	C	0.86692	0.366929	0.494543
491	C	0.885314	0.385269	0.54083
492	C	0.866912	0.3669	0.58711
493	C	0.829002	0.329044	0.587351
494	C	0.809457	0.309506	0.448777
495	H	0.912686	0.412616	0.54083
496	C	0.80941	0.309481	0.632861
497	H	0.822084	0.322129	0.414618
498	H	0.759585	0.259595	0.414607
499	H	0.822028	0.322092	0.667024
500	H	0.759491	0.259593	0.667016
501	C	0.771654	0.80982	0.540759
502	C	0.752559	0.828964	0.58729
503	C	0.714707	0.866887	0.587057
504	C	0.696317	0.885249	0.54077
505	C	0.714636	0.866824	0.494479
506	C	0.752511	0.828928	0.494231
507	C	0.772128	0.809382	0.632797
508	C	0.772062	0.809351	0.448716
509	H	0.668969	0.912626	0.54077
510	C	0.809822	0.771649	0.540751
511	C	0.828959	0.752526	0.587275
512	C	0.866859	0.714656	0.587027
513	C	0.885243	0.696296	0.54074
514	C	0.866845	0.714665	0.494457
515	C	0.828937	0.752528	0.494219
516	C	0.809396	0.772092	0.632794
517	H	0.912617	0.668949	0.540736
518	C	0.809348	0.772083	0.448709
519	H	0.822025	0.759472	0.666952
520	H	0.759527	0.822012	0.666963
521	H	0.821961	0.759465	0.414543
522	H	0.759429	0.821967	0.414554
523	C	0.30993	0.271748	0.540808
524	C	0.329062	0.25263	0.587336
525	C	0.366939	0.214733	0.587094
526	C	0.385294	0.196345	0.540808
527	C	0.366919	0.214726	0.494521
528	C	0.329044	0.252622	0.494276
529	C	0.309499	0.272201	0.632846
530	C	0.309476	0.272195	0.448762
531	H	0.412645	0.168975	0.540804
532	C	0.271754	0.30991	0.540808
533	C	0.252632	0.329031	0.587336
534	C	0.214728	0.366899	0.587091
535	C	0.196331	0.385254	0.540804
536	C	0.214709	0.366883	0.494525
537	C	0.252619	0.329023	0.494276
538	C	0.272213	0.309473	0.632846
539	H	0.168957	0.412605	0.540804
540	C	0.272192	0.309467	0.448762
541	H	0.259593	0.322091	0.667008
542	H	0.322123	0.259582	0.667012
543	H	0.259565	0.322083	0.414599
544	H	0.322094	0.259576	0.414599
545	C	0.309872	0.540808	0.809863
546	C	0.329001	0.494294	0.828995
547	C	0.366901	0.494536	0.866876
548	C	0.385293	0.540805	0.885229
549	C	0.366895	0.58707	0.866861
550	C	0.328992	0.587318	0.828984
551	C	0.309437	0.4488	0.809422
552	C	0.309421	0.632815	0.809407
553	H	0.41266	0.540804	0.912594
554	C	0.271698	0.540811	0.771692
555	C	0.252581	0.4943	0.752563
556	C	0.21468	0.494548	0.714686
557	C	0.196274	0.540813	0.696325
558	C	0.214658	0.587075	0.714693
559	C	0.252565	0.587321	0.752567
560	C	0.272158	0.448803	0.772136
561	H	0.168901	0.540814	0.668968
562	C	0.272135	0.632818	0.772125
563	H	0.25954	0.414652	0.759514
564	H	0.322065	0.414649	0.822044
565	H	0.25951	0.666966	0.759503
566	H	0.322045	0.666966	0.822021
567	C	0.771681	0.540791	0.271681
568	C	0.752558	0.494284	0.252557
569	C	0.714658	0.494532	0.214677
570	C	0.696257	0.540801	0.196317
571	C	0.714645	0.587063	0.214682
572	C	0.752549	0.587305	0.252558
573	C	0.772131	0.448784	0.272132
574	C	0.772115	0.632799	0.272126
575	H	0.668887	0.540802	0.168955
576	C	0.809856	0.540788	0.309851
577	C	0.828987	0.494275	0.328975
578	C	0.866899	0.494516	0.366847
579	C	0.885287	0.540782	0.385207
580	C	0.866885	0.587047	0.366845
581	C	0.828978	0.587299	0.328973
582	C	0.809417	0.448781	0.309414
583	H	0.912665	0.540781	0.412565
584	C	0.809398	0.632796	0.309408
585	H	0.822041	0.414629	0.322037
586	H	0.759505	0.414637	0.259517
587	H	0.82202	0.666943	0.322027
588	H	0.759484	0.66695	0.259509
589	C	0.309923	0.540769	0.271717
590	C	0.329044	0.587275	0.252574
591	C	0.366928	0.587029	0.214669
592	C	0.38532	0.540763	0.196312
593	C	0.366942	0.494498	0.214705
594	C	0.329047	0.494254	0.252599
595	C	0.309484	0.632772	0.272149
596	C	0.309484	0.448761	0.272189
597	H	0.412681	0.540761	0.168936
598	C	0.271745	0.540769	0.309894
599	C	0.252618	0.587284	0.329012
600	C	0.214694	0.58704	0.366876
601	C	0.196282	0.540775	0.385234
602	C	0.214688	0.494513	0.366885
603	C	0.252613	0.494259	0.329024
604	C	0.272202	0.632777	0.309442
605	H	0.168894	0.540777	0.41258
606	C	0.272195	0.448762	0.309473
607	H	0.259581	0.666928	0.322058
608	H	0.32211	0.666924	0.259523
609	H	0.259568	0.414614	0.3221
610	H	0.32211	0.41461	0.259578
611	C	0.771727	0.540785	0.809904
612	C	0.752595	0.587296	0.829022
613	C	0.71467	0.587052	0.866884
614	C	0.696264	0.540783	0.88524
615	C	0.714676	0.494521	0.866899
616	C	0.752598	0.494275	0.829033
617	C	0.772173	0.632793	0.809448
618	C	0.772173	0.448778	0.809475
619	H	0.668881	0.540782	0.912594
620	C	0.809909	0.540784	0.771729
621	C	0.82903	0.587294	0.752593
622	C	0.866926	0.587049	0.714701
623	C	0.885315	0.540787	0.696337
624	C	0.866932	0.494522	0.714723
625	C	0.829033	0.494274	0.752612
626	C	0.809462	0.632792	0.772163
627	H	0.912683	0.540784	0.668971
628	C	0.809463	0.448777	0.772189
629	H	0.822083	0.66694	0.759533
630	H	0.759543	0.66694	0.822059
631	H	0.822085	0.414626	0.759571
632	H	0.759545	0.414626	0.822093
633	C	0.540802	0.309909	0.809946
634	C	0.494294	0.329045	0.829071
635	C	0.494538	0.366951	0.866944
636	C	0.540804	0.385332	0.885312
637	C	0.587067	0.366924	0.866955
638	C	0.587312	0.329026	0.829071
639	C	0.448796	0.309475	0.809505
640	C	0.632803	0.309452	0.809497
641	H	0.540809	0.412704	0.912669
642	C	0.540798	0.271735	0.771771
643	C	0.494287	0.25261	0.752653
644	C	0.494525	0.2147	0.71478
645	C	0.540795	0.19632	0.696404
646	C	0.587062	0.21472	0.714753
647	C	0.587306	0.252613	0.752638
648	C	0.448793	0.272186	0.772227
649	H	0.540795	0.168953	0.669043
650	C	0.632804	0.272178	0.772208
651	H	0.414646	0.259562	0.759616
652	H	0.41465	0.322101	0.822127
653	H	0.66695	0.259554	0.759586
654	H	0.666954	0.32207	0.822115
655	C	0.540756	0.771674	0.271621
656	C	0.494245	0.752564	0.252493
657	C	0.494483	0.71467	0.214607
658	C	0.540746	0.696264	0.196246
659	C	0.587012	0.714644	0.214614
660	C	0.587264	0.752545	0.252495
661	C	0.448751	0.772138	0.27207
662	C	0.632761	0.772104	0.272061
663	H	0.540745	0.668895	0.168887
664	C	0.540759	0.809843	0.3098
665	C	0.494252	0.828973	0.328932
666	C	0.494496	0.86687	0.366815
667	C	0.54077	0.885246	0.385177
668	C	0.587036	0.866847	0.366812
669	C	0.58727	0.828957	0.328925
670	C	0.448754	0.809414	0.309361
671	H	0.540774	0.912611	0.412542
672	C	0.632765	0.809384	0.309348
673	H	0.414608	0.82204	0.321984
674	H	0.4146	0.759523	0.259449
675	H	0.666916	0.821999	0.321966
676	H	0.666908	0.759478	0.259438
677	C	0.540784	0.771695	0.809874
678	C	0.587288	0.752558	0.829007
679	C	0.587037	0.714643	0.866884
680	C	0.540767	0.696249	0.885244
681	C	0.494504	0.714658	0.86688
682	C	0.494269	0.752566	0.828995
683	C	0.632789	0.772135	0.809441
684	C	0.448778	0.772143	0.809418
685	H	0.540758	0.668871	0.912605
686	C	0.540794	0.809877	0.771695
687	C	0.587308	0.829017	0.752582
688	C	0.587077	0.866936	0.714704
689	C	0.54081	0.885311	0.696318
690	C	0.494537	0.866902	0.714663
691	C	0.494286	0.828998	0.752551
692	C	0.632795	0.809436	0.772159
693	H	0.540812	0.91269	0.668956
694	C	0.448788	0.809425	0.772121
695	H	0.666948	0.822063	0.759548
696	H	0.666933	0.759508	0.822063
697	H	0.414641	0.822048	0.759492
698	H	0.414629	0.759516	0.822033
699	C	0.540827	0.309871	0.271695
700	C	0.587334	0.329002	0.25256
701	C	0.587084	0.366909	0.214673
702	C	0.540817	0.385305	0.196313
703	C	0.494555	0.3669	0.21468
704	C	0.494315	0.328995	0.252568
705	C	0.632832	0.309433	0.272132
706	C	0.448825	0.30942	0.272148
707	H	0.540815	0.41268	0.168949
708	C	0.540836	0.271694	0.309878
709	C	0.587347	0.252571	0.329007
710	C	0.587108	0.214664	0.366897
711	C	0.540842	0.196267	0.385264
712	C	0.494571	0.214657	0.366897
713	C	0.494325	0.252563	0.32901
714	C	0.632837	0.272148	0.309426
715	H	0.54084	0.168894	0.412629
716	C	0.448826	0.272135	0.30944
717	H	0.666989	0.259528	0.322046
718	H	0.666978	0.32206	0.259506
719	H	0.414681	0.259508	0.322065
720	H	0.414674	0.322042	0.259529
